7

 C   -1.396112137009    0.318277571591    0.000000000000
 O   -0.079904137009    0.905882571591    0.000000000000
 H   -2.065442137009    1.175043571591    0.000000000000
 H   -1.544240137009   -0.295606428409    0.890672000000
 H   -1.544240137009   -0.295606428409   -0.890672000000
 N    0.965429862991   -0.013784428409    0.000000000000
 O    0.606859862991   -1.169385428409    0.000000000000
