9

 S    0.000000000000    0.000000000000    1.145850932714
 C    0.000000000000    1.233876000000   -0.045376067286
 C    0.000000000000   -1.233876000000   -0.045376067286
 C    0.000000000000    0.709173000000   -1.316224067286
 C    0.000000000000   -0.709173000000   -1.316224067286
 H    0.000000000000    2.275343000000    0.248081932714
 H    0.000000000000   -2.275343000000    0.248081932714
 H    0.000000000000    1.321934000000   -2.211133067286
 H    0.000000000000   -1.321934000000   -2.211133067286
