6

 B   -0.856627175000    0.000000000000    0.000000000000
 B    0.856627175000    0.000000000000    0.000000000000
 F    1.550215825000    0.801492059020    0.801492059020
 F    1.550215825000   -0.801492059020   -0.801492059020
 F   -1.550215825000   -0.801492059020    0.801492059020
 F   -1.550215825000    0.801492059020   -0.801492059020
