9

 O    0.000000000000    0.000000000000    1.135170874780
 C    0.000000000000    1.094700000000    0.319870874780
 C    0.000000000000   -1.094700000000    0.319870874780
 C    0.000000000000    0.713200000000   -0.990329125220
 C    0.000000000000   -0.713200000000   -0.990329125220
 H    0.000000000000    2.049359000000    0.822944874780
 H    0.000000000000   -2.049359000000    0.822944874780
 H    0.000000000000    1.370828000000   -1.847906125220
 H    0.000000000000   -1.370828000000   -1.847906125220
